LAMMPS (22 Aug 2018)
#################### INITIALIZATION ####################
units real
dimension 3
newton on
boundary p p p
atom_style full

#################### VARIABLES ####################

variable Temp equal 393.15         # Temperature in K
variable Pres equal 49.3462        # Pressure in atm.
variable RandomSeed equal 12680    # The random seed for velocity
variable tstep equal 2.0           # 2fs
#variable nininpt equal 2000        # Sample equilibration in the NPT ensemble
variable nrun equal  30000000       # production 10 ns
variable Nf equal 100000           # The total nr. of steps of sampling for an average
variable Ne equal 10               # Sample every 50 cycles
variable Nr equal 100000/10
variable Nvis equal  5             # sampling rate of viscosity every (Nvis*2) timestep
variable Ntherm equal 5            # sampling rate of viscosity every (Nvis*2) timestep
variable Ndiff equal 1000          # sampling rate of diffusion every Ndif timestep
variable Nwrite equal 10000        # writing to file every Nwrite
variable nrestart equal 30000000/3

variable N_thermo equal 100000
variable Ndump equal 500000        # Make movie with 10 snapshots

#################### ATOM DEFINITION and FORCEFIELD ####################

# Read restart file
read_restart ./NPT.restart.20000000             # read the positions
  restoring atom style full from restart
  orthogonal box = (5.02972 5.02972 5.02972) to (37.1423 37.1423 37.1423)
  restoring pair style lj/cut/coul/long from restart
  restoring bond style harmonic from restart
  restoring angle style harmonic from restart
  3054 atoms
  2012 bonds
  1006 angles
include forcefield_fix2.data                   # read the force field
# ----------------- INTERMOLECULAR POTENTIAL -------------------

pair_style lj/cut/coul/long 12.5 12.5

pair_coeff 1 1 0.10989  2.35  # Na-Na
pair_coeff 2 2 0.10771  4.42  # Cl-Cl
pair_coeff 3 3 0.155    3.166 # O-O (H2O)
pair_coeff 4 4 0   0 # H-H
pair_coeff 5 5 0.0537   2.80  # C-C
pair_coeff 6 6 0.157    3.05  # O-O (CO2)
pair_modify mix arithmetic

bond_style  harmonic
bond_coeff  1 527.2 1.000 # H2O
bond_coeff  2 1029 1.160 # CO2

angle_style harmonic
angle_coeff 1 37.95 109.47 # H2O
angle_coeff 2 56.00 180.00 # CO2

dihedral_style none
improper_style none

kspace_style pppm 1.0e-6

set type 1 charge +1.0000 #Na
  18 settings made for charge
set type 2 charge -1.0000 #Cl
  18 settings made for charge
set type 3 charge -0.8476 #O (H2O)
  1000 settings made for charge
set type 4 charge +0.4238 #H
  2000 settings made for charge
set type 5 charge +0.70 #C
  6 settings made for charge
set type 6 charge -0.35 #O (CO2)
  12 settings made for charge

#################### SETTINGS ####################

group water type 3 4                       # Water
3000 atoms in group water
group Na    type 1                         # Na ions
18 atoms in group Na
group Cl    type 2			   # Cl ions
18 atoms in group Cl
group COO   type 5 6			   # CO2
18 atoms in group COO

neighbor 2.0 bin
neigh_modify every 1 delay 0 check yes

reset_timestep 0
run_style verlet

#################### FIXES/Initialization of the system ####################

fix constrain water shake 1.0e-6 1000 0 b 1 a 1

velocity all create 393.15 12680

# Just to minimize the whole system correctly
#timestep 0.0001
#run 10000
#timestep 0.0002
#run 10000
#timestep 0.0005
#run 10000
#timestep 0.001
#run 10000
#timestep 0.002
#run 10000
#timestep 0.005
#run 10000
#timestep 0.01
#run 10000
#timestep 0.02
#run 10000
#timestep 0.05
#run 10000
#timestep 0.1
#run 10000
#timestep 0.2
#run 10000
#timestep 0.5
#run 10000
#run 10000
#
#unfix integrate
#

#################### 2) PRODUCTION in NPT #####################

#reset_timestep 0
fix integrate all npt temp 393.15 393.15 100.0 iso 49.3462 49.3462 1000.0
  fix style: npt, fix ID: integrate

variable TotEn equal etotal
fix TEAve all ave/time 10 10000 100000 v_TotEn file TotalEnergy.dat

variable PotEn equal pe
fix PEAve all ave/time 10 10000 100000 v_PotEn file PotentialEnergy.dat

variable KinEn equal ke
fix KEAve all ave/time 10 10000 100000 v_KinEn file KineticEnergy.dat

compute T all temp
fix TempAve all ave/time 10 10000 100000 c_T file Temperature.dat

## computing viscosity and average pressure
compute P all pressure T
fix PressAve all ave/time 10 10000 100000 c_P file Pressure.dat
fix f1 all ordern viscosity 5 10000 c_P
  fix style: ordern, fix ID: f1

## computing diffusion coefficients
compute positions all position
fix f3 all ordern diffusivity 1000 10000 c_positions
  fix style: ordern, fix ID: f3

## computing radial distribution function
#compute rdf_extended all rdf/ext Nbin 1000 Nwrite 100 file rdf.dat
#fix f4 all ave/time 1 1 1000 c_rdf_extended

thermo 100000
thermo_style custom step temp f_TempAve press f_PressAve pe f_PEAve ke f_KEAve etotal f_TEAve density
thermo_modify flush yes

dump NewSystem all atom 500000 NPT_Equilibrium.lammpstrj

# What interval should we use for the restart?
restart 10000000 NPT.restart
run 30000000
PPPM initialization ...
  G vector (1/distance) = 0.270445
  grid = 36 36 36
  stencil order = 5
  estimated absolute RMS force accuracy = 0.000321793
  estimated relative force accuracy = 9.69069e-07
  3d grid and FFT values/proc = 7600 2592
All restart file global fix info was re-assigned
  update every 1 steps, delay 0 steps, check yes
Step Temp f_TempAve Press f_PressAve PotEng f_PEAve KinEng f_KEAve TotEng f_TEAve Density
0       393.15            0    1607.3071            0    -13290.88            0    2405.9219            0   -10884.958            0   0.96936082
Averages over the last 151 of 301 rows, steps 15000000 to 30000000:
Temp f_TempAve Press f_PressAve PotEng f_PEAve KinEng f_KEAve TotEng f_TEAve Density
393.305 393.164 -14.2896 51.0391 -13133.7 -13140.2 2406.87 2406.01 -10726.8 -10734.2 0.960699
Loop time of 99481 on 24 procs for 30000000 steps with 3054 atoms

print " All done! "
 All done!
