LAMMPS (16 Feb 2016)
# Methane
units		real
dimension	3
atom_style	atomic
boundary	p p p

# Create the simulation box
lattice		fcc 3
Lattice spacing in x,y,z = 3 3 3
region		box block 0 10 0 10 0 10
create_box	1 box
Created orthogonal box = (0 0 0) to (30 30 30)
create_atoms	1 box
Created 4000 atoms

# Properties of methane
mass		1 16

pair_style	lj/cut 14
pair_coeff	1 1 1.0 0.294 3.73

# System conditions
variable Temp  equal	283.13
variable Pres  equal 	1.00

# For lammps
neighbor	2.0 bin
neigh_modify	every 1 delay 0 check no

# Initial velocity
velocity	all create 283.13 62909

# Equilibrate the system
fix integrate_1 all npt temp 283.13 283.13 100.0 iso 1 1 1000.0
thermo 100
run 200000
  1 neighbor list requests
  update every 1 steps, delay 0 steps, check no
Step Temp E_pair E_mol TotEng Press Volume
0       283.13   -0.7732371            0    3374.2098    5710.0785        27000
Averages over the last 1001 of 2001 rows, steps 100000 to 200000:
Temp E_pair E_mol TotEng Press Volume
283.133 -0.320372 0 3374.7 1.00087 1.54178e+08
Loop time of 51.3906 on 24 procs for 200000 steps with 4000 atoms

reset_timestep 0

# Ensemble set up and output
fix integrate_2 all npt temp 283.13 283.13 100.0 iso 1 1 1000.0

variable Dens equal density
fix DensAve all ave/time 10 50 500 v_Dens file Density.dat

dump		1 all xyz 100 trajec.xyz

# Run
thermo		100
run		10000
Step Temp E_pair E_mol TotEng Press Volume
0    273.14543  -0.14750586            0    3255.8169   0.94886061 1.5683875e+08
Averages over the last 51 of 101 rows, steps 5000 to 10000:
Temp E_pair E_mol TotEng Press Volume
283.192 -0.0088704 0 3375.72 0.995105 1.55094e+08
Loop time of 3.09647 on 24 procs for 10000 steps with 4000 atoms
